REMARK  3 active torsions:
REMARK  status: ('A' for Active; 'I' for Inactive)
REMARK    1  A    between atoms: C3_3  and  C4_4 
REMARK    2  A    between atoms: C3_3  and  N2_21 
REMARK    3  A    between atoms: C4_4  and  C5_5 
ROOT
ATOM      1  C5  <0> d          -1.498  -0.796   0.086  0.00  0.00     0.073 C 
ATOM      2  C6  <0> d          -0.133  -0.241   0.223  0.00  0.00    -0.042 A 
ATOM      3  C7  <0> d          -0.146   1.150   0.461  0.00  0.00     0.010 A 
ATOM      4  C8  <0> d           1.008   1.853   0.697  0.00  0.00     0.024 A 
ATOM      5  C9  <0> d           2.209   1.165   0.726  0.00  0.00     0.034 A 
ATOM      6  C10 <0> d           2.210  -0.185   0.487  0.00  0.00     0.031 A 
ATOM      7  C11 <0> d           1.022  -0.897   0.195  0.00  0.00    -0.049 A 
ATOM      8  C12 <0> d           1.367  -2.330  -0.146  0.00  0.00     0.043 C 
ATOM      9  C13 <0> d           0.477  -3.357   0.481  0.00  0.00     0.045 C 
ATOM     10  C14 <0> d          -0.978  -3.263   0.076  0.00  0.00    -0.032 A 
ATOM     11  C15 <0> d          -1.814  -2.237  -0.017  0.00  0.00     0.049 A 
ATOM     12  N1  <0> d          -3.128  -2.450  -0.240  0.00  0.00    -0.264 NA
ATOM     13  C16 <0> d          -3.648  -3.634  -0.431  0.00  0.00     0.117 A 
ATOM     14  C17 <0> d          -2.828  -4.747  -0.417  0.00  0.00     0.020 A 
ATOM     15  C18 <0> d          -1.488  -4.564  -0.165  0.00  0.00     0.011 A 
ATOM     16 Cl1  <0> d           3.693   2.000   1.062  0.00  0.00    -0.084 Cl
ENDROOT
BRANCH   1  17
ATOM     17  C4  <0> d          -2.109  -0.132  -1.150  0.00  0.00     0.043 C 
BRANCH  17  18
ATOM     18  C3  <0> d          -1.319  -0.544  -2.394  0.00  0.00     0.235 C 
BRANCH  18  19
ATOM     19  N2  <0> d          -2.008  -0.017  -3.591  0.00  0.00    -0.079 N 
ATOM     20  C1  <0> d          -1.925   1.458  -3.614  0.00  0.00     0.269 C 
ATOM     21  C2  <0> d          -1.393  -0.576  -4.814  0.00  0.00     0.269 C 
ATOM     22  H22 <0> d          -2.995  -0.296  -3.558  0.00  0.00     0.278 HD
ENDBRANCH  18  19
ENDBRANCH  17  18
ENDBRANCH   1  17
TORSDOF 3
