REMARK  4 active torsions:
REMARK  status: ('A' for Active; 'I' for Inactive)
REMARK    1  A    between atoms: C2_2  and  C4_4 
REMARK    2  A    between atoms: C4_4  and  O2_6 
REMARK    3  A    between atoms: O2_6  and  C5_7 
REMARK    4  A    between atoms: C5_7  and  C6_8 
ROOT
ATOM      1  C4  <0> d          -2.437   0.974   0.019  0.00  0.00     0.288 C 
ATOM      2  O1  <0> d          -2.420  -0.242   0.012  0.00  0.00    -0.260 OA
ENDROOT
BRANCH   1   3
ATOM      3  C2  <0> d          -1.174   1.726   0.017  0.00  0.00     0.004 C 
ATOM      4  C1  <0> d          -1.194   3.232   0.025  0.00  0.00     0.054 C 
ATOM      5  C3  <0> d          -0.013   1.076   0.008  0.00  0.00     0.024 C 
ENDBRANCH   1   3
BRANCH   1   6
ATOM      6  O2  <0> d          -3.613   1.632   0.028  0.00  0.00    -0.315 OA
BRANCH   6   7
ATOM      7  C5  <0> d          -4.820   0.824   0.029  0.00  0.00     0.213 C 
BRANCH   7   8
ATOM      8  C6  <0> d          -6.046   1.740   0.040  0.00  0.00     0.169 A 
ATOM      9  O3  <0> d          -6.951   1.653  -1.062  0.00  0.00    -0.379 OA
ATOM     10  C7  <0> d          -7.423   1.085   0.161  0.00  0.00     0.202 A 
ENDBRANCH   7   8
ENDBRANCH   6   7
ENDBRANCH   1   6
TORSDOF 4
